data/data/Four-wire/Network_14/Feeder_3/LineCode.txt
! Subset of available target linecodes, which are closest to the original ones in terms of positive sequence impedance
! -------------------------------------------------------------------------------------------------------------------------------------------------------------------------------------------------------------------------------------------------------------------------------------------------------------------------------------------------------
! original name: BS 5467 1997 table 10 16 (50 Hz)
New LineCode.LC1 nphases=4 Units=km
~ Rmatrix=(1.3480250575502448 0.1962220575502449 0.1960530575502449 0.1962290575502449 | 0.1962220575502449 1.3480120575502448 0.1962160575502449 0.1960530575502449 | 0.1960530575502449 0.1962160575502449 1.348013057550245 0.1962230575502449 | 0.1962290575502449 0.1960530575502449 0.1962230575502449 1.3480270575502449)
~ Xmatrix=(0.7814251531485135 0.7013971531485135 0.6774311531485134 0.7014261531485134 | 0.7013971531485135 0.7813811531485134 0.7013701531485135 0.6774341531485135 | 0.6774311531485134 0.7013701531485135 0.7813721531485135 0.7014021531485135 | 0.7014261531485134 0.6774341531485135 0.7014021531485135 0.7814381531485135)
~ Cmatrix=(0.0 0.0 0.0 0.0 | 0.0 0.0 0.0 0.0 | 0.0 0.0 0.0 0.0 | 0.0 0.0 0.0 0.0)

! original name: BS 6480 1988 table 17 Cu 16 (50 Hz)
New LineCode.LC6 nphases=4 Units=km
~ Rmatrix=(2.275110332819354 1.1225363328193543 1.1217103328193543 1.1225373328193542 | 1.1225363328193543 2.275110332819354 1.1225363328193543 1.1217103328193543 | 1.1217103328193543 1.1225363328193543 2.275111332819354 1.1225373328193542 | 1.1225373328193542 1.1217103328193543 1.1225373328193542 2.275111332819354)
~ Xmatrix=(1.046570816522671 0.962102816522671 0.932128816522671 0.9621038165226711 | 0.962102816522671 1.046571816522671 0.962102816522671 0.932128816522671 | 0.932128816522671 0.962102816522671 1.046573816522671 0.962102816522671 | 0.9621038165226711 0.932128816522671 0.962102816522671 1.046576816522671)
~ Cmatrix=(0.0 0.0 0.0 0.0 | 0.0 0.0 0.0 0.0 | 0.0 0.0 0.0 0.0 | 0.0 0.0 0.0 0.0)

! original name: Waveform 4-core 300 IEC 60287 (50 Hz)
New LineCode.LC8 nphases=4 Units=km
~ Rmatrix=(0.25864666219448174 0.1519906621944817 0.1519906621944817 0.1519906621944817 | 0.1519906621944817 0.25864666219448174 0.1519906621944817 0.1519906621944817 | 0.1519906621944817 0.1519906621944817 0.25864666219448174 0.1519906621944817 | 0.1519906621944817 0.1519906621944817 0.1519906621944817 0.25864666219448174)
~ Xmatrix=(0.1160280674700721 0.055430067470072064 0.033463067470072105 0.055430067470072064 | 0.055430067470072064 0.1160280674700721 0.055430067470072064 0.033463067470072105 | 0.033463067470072105 0.055430067470072064 0.1160280674700721 0.055430067470072064 | 0.055430067470072064 0.033463067470072105 0.055430067470072064 0.1160280674700721)
~ Cmatrix=(0.0 0.0 0.0 0.0 | 0.0 0.0 0.0 0.0 | 0.0 0.0 0.0 0.0 | 0.0 0.0 0.0 0.0)
! -------------------------------------------------------------------------------------------------------------------------------------------------------------------------------------------------------------------------------------------------------------------------------------------------------------------------------------------------------